feeders/123Bus/ieee123_VLN_Node.Txt

LINE-GROUND and LINE-LINE VOLTAGES BY BUS & NODE

Bus      Node    VLN (kV)   Angle      pu     Base kV    Node-Node   VLL (kV)  Angle      pu

150 .... 1   2.9562E-006 /_  -26.3 1.2308E-006     4.160        1-2 8.2827E-007 /_   -8.8 1.991E-007
   -     2   2.1807E-006 /_  -32.9 9.0796E-007     4.160        2-3 5.159E-007 /_ -159.1 1.2401E-007
   -     3   2.5205E-006 /_  -23.4 1.0494E-006     4.160        3-1 4.5759E-007 /_  137.3  1.1E-007
150R ... 1   4.1286E-006 /_  -26.3 1.719E-006     4.160        1-2 1.1568E-006 /_   -8.8 2.7807E-007
   -     2   3.0456E-006 /_  -32.9 1.2681E-006     4.160        2-3 7.205E-007 /_ -159.2 1.732E-007
   -     3    3.52E-006 /_  -23.4 1.4656E-006     4.160        3-1 6.3907E-007 /_  137.3 1.5362E-007
149 .... 1   3.3052E-006 /_  -41.8 1.3762E-006     4.160        1-2 1.1568E-006 /_   -9.0 2.7807E-007
   -     2   2.4166E-006 /_  -56.9 1.0062E-006     4.160        2-3 7.205E-007 /_ -159.3 1.732E-007
   -     3   2.6663E-006 /_  -41.6 1.1101E-006     4.160        3-1 6.3907E-007 /_  137.2 1.5362E-007
1 ...... 1    0.0035671 /_  -41.1 0.0014852     4.160        1-2 0.00033137 /_  -18.4 7.9656E-005
   -     2     0.003264 /_  -43.3  0.001359     4.160        2-3 0.00015662 /_ -104.4 3.7649E-005
   -     3    0.0031911 /_  -40.9 0.0013286     4.160        3-1 0.00037622 /_  137.1 9.0437E-005
2 ...... 2    0.0032789 /_  -43.2 0.0013652     4.160
3 ...... 3    0.0033052 /_  -39.9 0.0013762     4.160
7 ...... 1    0.0061634 /_  -41.6 0.0025662     4.160        1-2 0.00057014 /_  -18.6 0.00013705
   -     2     0.005643 /_  -43.8 0.0023495     4.160        2-3 0.00026729 /_  -93.0 6.4251E-005
   -     3    0.0054719 /_  -41.7 0.0022783     4.160        3-1 0.00069167 /_  139.6 0.00016627
4 ...... 3     0.003341 /_  -39.5  0.001391     4.160
5 ...... 3    0.0033966 /_  -39.1 0.0014142     4.160
6 ...... 3    0.0034441 /_  -38.7  0.001434     4.160
8 ...... 1    0.0078827 /_  -41.8  0.003282     4.160        1-2  0.0007215 /_  -18.8 0.00017344
   -     2     0.007224 /_  -44.0 0.0030078     4.160        2-3 0.00034387 /_  -89.8 8.2662E-005
   -     3    0.0069886 /_  -42.0 0.0029098     4.160        3-1 0.00089454 /_  139.9 0.00021503
12 ..... 2    0.0072418 /_  -43.9 0.0030152     4.160
9 ...... 1    0.0079786 /_  -41.5  0.003322     4.160
13 ..... 1     0.010367 /_  -42.3 0.0043163     4.160        1-2  0.0009015 /_  -19.6 0.00021671
   -     2    0.0095415 /_  -44.4 0.0039727     4.160        2-3  0.0004592 /_  -90.0 0.00011038
   -     3    0.0092266 /_  -42.3 0.0038416     4.160        3-1  0.0011403 /_  138.1 0.00027412
9R ..... 1    0.0079788 /_  -41.5  0.003322     4.160
14 ..... 1    0.0080884 /_  -41.1 0.0033677     4.160
34 ..... 3    0.0092877 /_  -42.1  0.003867     4.160
18 ..... 1      0.01216 /_  -39.9 0.0050628     4.160        1-2  0.0012082 /_  -13.7 0.00029044
   -     2     0.011089 /_  -42.7 0.0046169     4.160        2-3 0.00056947 /_ -105.9 0.00013689
   -     3     0.010844 /_  -40.0  0.004515     4.160        3-1  0.0013159 /_  140.7 0.00031633
11 ..... 1    0.0081316 /_  -41.0 0.0033856     4.160
10 ..... 1    0.0081098 /_  -41.1 0.0033766     4.160
15 ..... 3    0.0093119 /_  -42.1 0.0038771     4.160
16 ..... 3    0.0093725 /_  -41.9 0.0039023     4.160
17 ..... 3    0.0093402 /_  -42.0 0.0038889     4.160
19 ..... 1     0.012242 /_  -39.8  0.005097     4.160
21 ..... 1      0.01232 /_  -39.6 0.0051295     4.160        1-2  0.0012658 /_  -13.7 0.00030428
   -     2     0.011195 /_  -42.4 0.0046611     4.160        2-3   0.000583 /_ -111.8 0.00014014
   -     3     0.011003 /_  -39.6 0.0045813     4.160        3-1  0.0013166 /_  140.3 0.00031648
20 ..... 1     0.012295 /_  -39.7 0.0051191     4.160
22 ..... 2      0.01128 /_  -42.2 0.0046967     4.160
23 ..... 1     0.012443 /_  -39.3 0.0051805     4.160        1-2  0.0013346 /_  -13.5 0.00032081
   -     2     0.011256 /_  -42.3 0.0046866     4.160        2-3 0.00060707 /_ -118.4 0.00014593
   -     3     0.011126 /_  -39.2 0.0046326     4.160        3-1  0.0013162 /_  140.0 0.00031639
24 ..... 3     0.011216 /_  -39.1 0.0046697     4.160
25 ..... 1     0.012564 /_  -39.1 0.0052311     4.160        1-2  0.0014063 /_  -13.4 0.00033806
   -     2     0.011313 /_  -42.2 0.0047102     4.160        2-3 0.00063079 /_ -123.1 0.00015163
   -     3     0.011231 /_  -39.0 0.0046762     4.160        3-1  0.0013328 /_  140.1 0.00032039
25R .... 1     0.012721 /_  -39.1 0.0052965     4.160
   -     3     0.011231 /_  -39.0 0.0046762     4.160        3-1  0.0014899 /_  140.2 0.00035815
26 ..... 1     0.012775 /_  -39.0 0.0053192     4.160
   -     3     0.011284 /_  -38.9 0.0046984     4.160        3-1  0.0014912 /_  140.1 0.00035847
28 ..... 1     0.012619 /_  -39.0 0.0052541     4.160        1-2  0.0014401 /_  -13.4 0.00034617
   -     2     0.011338 /_  -42.1 0.0047205     4.160        2-3 0.00064091 /_ -124.8 0.00015406
   -     3     0.011274 /_  -38.9 0.0046942     4.160        3-1  0.0013449 /_  140.3 0.0003233
27 ..... 1     0.012807 /_  -38.9 0.0053325     4.160
   -     3     0.011295 /_  -38.8 0.0047029     4.160        3-1  0.0015121 /_  140.5 0.00036348
31 ..... 3     0.011321 /_  -38.8 0.0047136     4.160
33 ..... 1     0.012889 /_  -38.8 0.0053665     4.160
29 ..... 1     0.012668 /_  -38.9 0.0052745     4.160        1-2  0.0014673 /_  -13.3 0.00035272
   -     2     0.011362 /_  -42.1 0.0047307     4.160        2-3 0.00065547 /_ -127.1 0.00015757
   -     3     0.011324 /_  -38.8 0.0047147     4.160        3-1  0.0013446 /_  140.2 0.00032322
30 ..... 1     0.012686 /_  -38.8 0.0052818     4.160        1-2  0.0014723 /_  -13.3 0.00035391
   -     2     0.011376 /_  -42.0 0.0047363     4.160        2-3  0.0006717 /_ -129.3 0.00016147
   -     3     0.011363 /_  -38.6 0.0047312     4.160        3-1  0.0013229 /_  139.6 0.00031801
250 .... 1     0.012686 /_  -38.8 0.0052818     4.160        1-2  0.0014723 /_  -13.3 0.00035391
   -     2     0.011376 /_  -42.0 0.0047363     4.160        2-3  0.0006717 /_ -129.3 0.00016147
   -     3     0.011363 /_  -38.6 0.0047312     4.160        3-1  0.0013229 /_  139.6 0.00031801
32 ..... 3     0.011345 /_  -38.7 0.0047238     4.160
35 ..... 1     0.012671 /_  -39.7 0.0052759     4.160        1-2  0.0011726 /_  -11.6 0.00028187
   -     2      0.01165 /_  -42.4 0.0048506     4.160        2-3 0.00060844 /_ -101.7 0.00014626
   -     3     0.011351 /_  -39.8 0.0047262     4.160        3-1  0.0013202 /_  141.0 0.00031736
36 ..... 1      0.01277 /_  -39.5 0.0053169     4.160        1-2  0.0011731 /_  -11.8 0.00028199
   -     2     0.011744 /_  -42.1 0.0048895     4.160
40 ..... 1     0.012999 /_  -39.6 0.0054124     4.160        1-2  0.0011694 /_  -11.6 0.0002811
   -     2      0.01198 /_  -42.3 0.0049882     4.160        2-3  0.0006304 /_  -99.4 0.00015154
   -     3      0.01165 /_  -39.7 0.0048506     4.160        3-1  0.0013496 /_  140.6 0.00032441
37 ..... 1     0.012818 /_  -39.4 0.0053369     4.160
38 ..... 2     0.011782 /_  -42.1 0.0049056     4.160
39 ..... 2     0.011807 /_  -42.0  0.004916     4.160
41 ..... 3     0.011676 /_  -39.6 0.0048614     4.160
42 ..... 1     0.013323 /_  -39.6  0.005547     4.160        1-2  0.0011668 /_  -11.5 0.00028047
   -     2     0.012306 /_  -42.2 0.0051236     4.160        2-3 0.00065337 /_  -96.3 0.00015706
   -     3     0.011935 /_  -39.6 0.0049692     4.160        3-1  0.0013879 /_  140.5 0.00033362
43 ..... 2     0.012385 /_  -42.0 0.0051568     4.160
44 ..... 1      0.01356 /_  -39.6 0.0056456     4.160        1-2  0.0011714 /_  -11.4 0.00028159
   -     2     0.012539 /_  -42.2 0.0052209     4.160        2-3 0.00067225 /_  -95.5 0.0001616
   -     3      0.01215 /_  -39.6 0.0050588     4.160        3-1  0.0014095 /_  140.3 0.00033881
45 ..... 1     0.013592 /_  -39.6 0.0056591     4.160
47 ..... 1     0.013827 /_  -39.7  0.005757     4.160        1-2  0.0011596 /_  -11.3 0.00027874
   -     2     0.012819 /_  -42.2 0.0053373     4.160        2-3 0.00069606 /_  -94.8 0.00016732
   -     3     0.012409 /_  -39.6 0.0051668     4.160        3-1  0.0014178 /_  139.5 0.00034082
46 ..... 1     0.013616 /_  -39.6 0.0056693     4.160
48 ..... 1     0.013893 /_  -39.7 0.0057843     4.160        1-2   0.001154 /_  -11.3 0.00027741
   -     2      0.01289 /_  -42.2 0.0053667     4.160        2-3 0.00069657 /_  -94.8 0.00016744
   -     3     0.012479 /_  -39.6 0.0051958     4.160        3-1  0.0014136 /_  139.4 0.00033982
49 ..... 1     0.013916 /_  -39.7 0.0057942     4.160        1-2  0.0011459 /_  -11.0 0.00027545
   -     2     0.012923 /_  -42.1 0.0053807     4.160        2-3 0.00071146 /_  -95.2 0.00017102
   -     3     0.012508 /_  -39.5  0.005208     4.160        3-1  0.0014085 /_  138.9 0.00033857
50 ..... 1      0.01394 /_  -39.6 0.0058042     4.160        1-2  0.0011522 /_  -11.0 0.00027697
   -     2     0.012941 /_  -42.1 0.0053879     4.160        2-3  0.0007105 /_  -96.6 0.00017079
   -     3     0.012541 /_  -39.4 0.0052216     4.160        3-1  0.0013999 /_  138.6 0.00033652
51 ..... 1     0.013955 /_  -39.6 0.0058101     4.160        1-2  0.0011621 /_  -11.0 0.00027934
   -     2     0.012946 /_  -42.1 0.0053902     4.160        2-3  0.0007105 /_  -96.5 0.00017079
   -     3     0.012546 /_  -39.4 0.0052237     4.160        3-1  0.0014091 /_  138.8 0.00033872
151 .... 1     0.013955 /_  -39.6 0.0058101     4.160        1-2  0.0011621 /_  -11.0 0.00027934
   -     2     0.012946 /_  -42.1 0.0053902     4.160        2-3  0.0007105 /_  -96.5 0.00017079
   -     3     0.012546 /_  -39.4 0.0052237     4.160        3-1  0.0014091 /_  138.8 0.00033872
52 ..... 1     0.012778 /_  -43.9 0.0053202     4.160        1-2  0.0010539 /_  -22.8 0.00025334
   -     2     0.011801 /_  -45.7 0.0049133     4.160        2-3 0.00056369 /_  -84.9 0.0001355
   -     3      0.01137 /_  -43.9 0.0047339     4.160        3-1  0.0014082 /_  136.5 0.00033851
53 ..... 1     0.013965 /_  -44.5 0.0058144     4.160        1-2  0.0011172 /_  -24.2 0.00026856
   -     2     0.012923 /_  -46.2 0.0053805     4.160        2-3 0.00061677 /_  -83.3 0.00014826
   -     3     0.012436 /_  -44.5  0.005178     4.160        3-1  0.0015285 /_  135.5 0.00036743
54 ..... 1     0.014694 /_  -44.9 0.0061182     4.160        1-2  0.0011487 /_  -25.1 0.00027613
   -     2     0.013619 /_  -46.5 0.0056703     4.160        2-3 0.00064986 /_  -82.6 0.00015622
   -     3     0.013099 /_  -44.8 0.0054539     4.160        3-1  0.0015954 /_  134.8 0.0003835
55 ..... 1     0.014714 /_  -44.8 0.0061265     4.160        1-2  0.0011494 /_  -25.2 0.00027629
   -     2     0.013638 /_  -46.5 0.0056781     4.160        2-3 0.00065272 /_  -81.6 0.0001569
   -     3     0.013109 /_  -44.8 0.0054581     4.160        3-1  0.0016053 /_  135.0 0.00038589
57 ..... 1     0.016625 /_  -45.8 0.0069219     4.160        1-2  0.0011718 /_  -27.4 0.00028168
   -     2     0.015518 /_  -47.2  0.006461     4.160        2-3 0.00063467 /_  -88.9 0.00015257
   -     3      0.01505 /_  -45.6 0.0062661     4.160        3-1  0.0015764 /_  131.9 0.00037894
56 ..... 1      0.01472 /_  -44.8 0.0061289     4.160        1-2  0.0011411 /_  -25.3 0.00027431
   -     2      0.01365 /_  -46.4 0.0056834     4.160        2-3 0.00065537 /_  -80.7 0.00015754
   -     3     0.013114 /_  -44.8 0.0054602     4.160        3-1  0.0016061 /_  135.1 0.00038608
58 ..... 2     0.015552 /_  -47.1  0.006475     4.160
60 ..... 1     0.020748 /_  -47.3 0.0086387     4.160        1-2  0.0012794 /_  -30.8 0.00030754
   -     2     0.019526 /_  -48.4 0.0081296     4.160        2-3 0.00063501 /_ -107.3 0.00015265
   -     3     0.019205 /_  -46.8 0.0079962     4.160        3-1  0.0015551 /_  125.8 0.00037381
59 ..... 2     0.015568 /_  -47.1 0.0064819     4.160
61 ..... 1     0.020748 /_  -47.3 0.0086387     4.160        1-2  0.0012794 /_  -30.8 0.00030754
   -     2     0.019526 /_  -48.4 0.0081296     4.160        2-3 0.00063501 /_ -107.3 0.00015265
   -     3     0.019205 /_  -46.8 0.0079962     4.160        3-1  0.0015551 /_  125.8 0.00037381
62 ..... 1       0.0208 /_  -47.4 0.0086603     4.160        1-2  0.0012568 /_  -31.5 0.00030211
   -     2     0.019594 /_  -48.4 0.0081582     4.160        2-3 0.00063948 /_ -109.4 0.00015372
   -     3     0.019292 /_  -46.7 0.0080325     4.160        3-1  0.0015254 /_  124.3 0.00036668
63 ..... 1     0.020832 /_  -47.4 0.0086735     4.160        1-2  0.0012421 /_  -32.1 0.00029859
   -     2     0.019637 /_  -48.4 0.0081759     4.160        2-3 0.00064624 /_ -109.9 0.00015535
   -     3     0.019337 /_  -46.7 0.0080513     4.160        3-1  0.0015158 /_  123.3 0.00036437
64 ..... 1     0.020864 /_  -47.5 0.0086868     4.160        1-2  0.0011932 /_  -33.0 0.00028682
   -     2     0.019711 /_  -48.3 0.0082067     4.160        2-3 0.00066006 /_ -111.3 0.00015867
   -     3     0.019419 /_  -46.6 0.0080853     4.160        3-1  0.0014764 /_  121.1 0.00035491
65 ..... 1     0.020878 /_  -47.5 0.0086929     4.160        1-2  0.0011762 /_  -34.1 0.00028274
   -     2     0.019736 /_  -48.3 0.0082173     4.160        2-3 0.00067194 /_ -116.3 0.00016153
   -     3     0.019494 /_  -46.5 0.0081166     4.160        3-1  0.0014318 /_  118.2 0.00034419
66 ..... 1     0.020895 /_  -47.5 0.0086997     4.160        1-2  0.0011729 /_  -34.2 0.00028195
   -     2     0.019755 /_  -48.3 0.0082252     4.160        2-3 0.00066939 /_ -119.3 0.00016091
   -     3     0.019547 /_  -46.5 0.0081384     4.160        3-1  0.0013999 /_  117.3 0.0003365
67 ..... 1     0.023874 /_  -47.9 0.0099403     4.160        1-2   0.002281 /_  -36.5 0.00054832
   -     2     0.021643 /_  -49.0 0.0090111     4.160        2-3 0.00062336 /_ -142.8 0.00014985
   -     3     0.021692 /_  -47.4 0.0090318     4.160        3-1  0.0021893 /_  127.6 0.00052627
68 ..... 1     0.023942 /_  -47.8 0.0099684     4.160
72 ..... 1     0.025021 /_  -48.4  0.010418     4.160        1-2   0.002243 /_  -36.1 0.00053918
   -     2     0.022834 /_  -49.6 0.0095073     4.160        2-3 0.00064751 /_ -144.7 0.00015565
   -     3     0.022901 /_  -48.0  0.009535     4.160        3-1   0.002127 /_  127.1 0.0005113
97 ..... 1     0.024015 /_  -47.7 0.0099988     4.160        1-2  0.0022997 /_  -36.7 0.0005528
   -     2     0.021762 /_  -48.9 0.0090609     4.160        2-3 0.00062819 /_ -143.7 0.00015101
   -     3     0.021824 /_  -47.2 0.0090865     4.160        3-1  0.0021999 /_  127.5 0.00052882
69 ..... 1     0.024019 /_  -47.8  0.010001     4.160
70 ..... 1     0.024074 /_  -47.8  0.010024     4.160
71 ..... 1     0.024105 /_  -47.7  0.010036     4.160
73 ..... 3     0.022995 /_  -47.9 0.0095743     4.160
76 ..... 1     0.025838 /_  -48.8  0.010758     4.160        1-2   0.002219 /_  -35.8 0.0005334
   -     2     0.023682 /_  -50.0   0.00986     4.160        2-3 0.00064742 /_ -144.0 0.00015563
   -     3     0.023735 /_  -48.5 0.0098824     4.160        3-1  0.0021085 /_  127.2 0.00050684
74 ..... 3     0.023077 /_  -47.9 0.0096082     4.160
75 ..... 3     0.023121 /_  -47.8 0.0096266     4.160
77 ..... 1     0.027182 /_  -49.6  0.011317     4.160        1-2  0.0023307 /_  -36.6 0.00056025
   -     2     0.024916 /_  -50.8  0.010374     4.160        2-3 0.00066451 /_ -151.6 0.00015974
   -     3      0.02505 /_  -49.3   0.01043     4.160        3-1  0.0021363 /_  127.1 0.00051354
86 ..... 1     0.026473 /_  -49.0  0.011022     4.160        1-2  0.0021496 /_  -36.8 0.00051672
   -     2     0.024376 /_  -50.0  0.010149     4.160        2-3 0.00060353 /_ -138.5 0.00014508
   -     3     0.024367 /_  -48.6  0.010145     4.160        3-1  0.0021113 /_  127.0 0.00050753
78 ..... 1     0.027516 /_  -49.7  0.011457     4.160        1-2  0.0023635 /_  -36.7 0.00056814
   -     2     0.025219 /_  -50.9    0.0105     4.160        2-3 0.00067428 /_ -153.7 0.00016209
   -     3     0.025376 /_  -49.5  0.010566     4.160        3-1  0.0021435 /_  127.0 0.00051527
79 ..... 1     0.027535 /_  -49.7  0.011464     4.160        1-2  0.0023766 /_  -36.6 0.0005713
   -     2     0.025226 /_  -50.9  0.010503     4.160        2-3 0.00067593 /_ -153.8 0.00016248
   -     3     0.025384 /_  -49.4  0.010569     4.160        3-1  0.0021535 /_  127.2 0.00051767
80 ..... 1     0.029068 /_  -50.5  0.012103     4.160        1-2  0.0024918 /_  -37.4  0.000599
   -     2     0.026647 /_  -51.7  0.011095     4.160        2-3 0.00072796 /_ -162.5 0.00017499
   -     3     0.026914 /_  -50.3  0.011206     4.160        3-1  0.0021566 /_  126.6 0.00051842
81 ..... 1     0.029637 /_  -50.8   0.01234     4.160        1-2   0.002547 /_  -37.5 0.00061227
   -     2     0.027164 /_  -52.0   0.01131     4.160        2-3 0.00075866 /_ -165.7 0.00018237
   -     3     0.027478 /_  -50.6  0.011441     4.160        3-1  0.0021618 /_  126.5 0.00051966
82 ..... 1     0.030441 /_  -51.2  0.012674     4.160        1-2  0.0026241 /_  -37.8 0.00063079
   -     2     0.027895 /_  -52.4  0.011614     4.160        2-3 0.00079167 /_ -169.3 0.0001903
   -     3     0.028262 /_  -51.0  0.011767     4.160        3-1  0.0021816 /_  126.5 0.00052441
84 ..... 3     0.027571 /_  -50.5  0.011479     4.160
83 ..... 1     0.031231 /_  -51.5  0.013003     4.160        1-2  0.0026903 /_  -38.0 0.0006467
   -     2     0.028622 /_  -52.8  0.011917     4.160        2-3 0.00082587 /_ -172.5 0.00019853
   -     3     0.029039 /_  -51.4  0.012091     4.160        3-1  0.0021928 /_  126.4 0.00052711
85 ..... 3     0.027615 /_  -50.5  0.011498     4.160
87 ..... 1     0.026893 /_  -49.0  0.011197     4.160        1-2  0.0021535 /_  -37.3 0.00051767
   -     2     0.024788 /_  -50.0  0.010321     4.160        2-3  0.0005833 /_ -137.1 0.00014022
   -     3     0.024765 /_  -48.7  0.010311     4.160        3-1  0.0021331 /_  127.1 0.00051276
88 ..... 1        0.027 /_  -49.1  0.011242     4.160
89 ..... 1     0.027012 /_  -49.0  0.011247     4.160        1-2  0.0020834 /_  -36.9 0.00050083
   -     2      0.02498 /_  -50.1  0.010401     4.160        2-3 0.00057777 /_ -135.9 0.00013889
   -     3     0.024945 /_  -48.7  0.010386     4.160        3-1  0.0020723 /_  127.2 0.00049815
90 ..... 2     0.025125 /_  -50.1  0.010461     4.160
91 ..... 1     0.027078 /_  -49.0  0.011274     4.160        1-2  0.0020914 /_  -36.9 0.00050275
   -     2     0.025037 /_  -50.1  0.010424     4.160        2-3 0.00056961 /_ -141.3 0.00013693
   -     3     0.025056 /_  -48.7  0.010432     4.160        3-1  0.0020263 /_  127.3 0.0004871
92 ..... 3     0.025229 /_  -48.9  0.010504     4.160
93 ..... 1       0.0271 /_  -49.0  0.011283     4.160        1-2  0.0020918 /_  -37.0 0.00050284
   -     2     0.025058 /_  -50.0  0.010433     4.160        2-3  0.0005643 /_ -140.6 0.00013565
   -     3     0.025069 /_  -48.7  0.010438     4.160        3-1  0.0020347 /_  127.4 0.00048912
94 ..... 1     0.027127 /_  -49.0  0.011295     4.160
95 ..... 1     0.027107 /_  -49.0  0.011286     4.160        1-2  0.0020769 /_  -37.1 0.00049926
   -     2     0.025078 /_  -50.0  0.010441     4.160        2-3 0.00055604 /_ -139.3 0.00013366
   -     3     0.025077 /_  -48.7  0.010441     4.160        3-1  0.0020341 /_  127.4 0.00048896
96 ..... 2     0.025088 /_  -50.0  0.010446     4.160
98 ..... 1     0.024053 /_  -47.7  0.010015     4.160        1-2  0.0022981 /_  -36.8 0.00055243
   -     2     0.021801 /_  -48.8  0.009077     4.160        2-3 0.00062907 /_ -143.9 0.00015122
   -     3     0.021865 /_  -47.2 0.0091037     4.160        3-1  0.0021976 /_  127.3 0.00052827
99 ..... 1     0.024086 /_  -47.7  0.010029     4.160        1-2  0.0022645 /_  -37.2 0.00054435
   -     2     0.021863 /_  -48.7  0.009103     4.160        2-3 0.00062978 /_ -144.1 0.00015139
   -     3     0.021931 /_  -47.1 0.0091312     4.160        3-1  0.0021672 /_  126.6 0.00052095
100 .... 1     0.024097 /_  -47.6  0.010033     4.160        1-2  0.0022626 /_  -37.2 0.00054388
   -     2     0.021875 /_  -48.7 0.0091078     4.160        2-3 0.00064008 /_ -145.2 0.00015386
   -     3     0.021957 /_  -47.1  0.009142     4.160        3-1  0.0021527 /_  126.3 0.00051747
450 .... 1     0.024097 /_  -47.6  0.010033     4.160        1-2  0.0022626 /_  -37.2 0.00054388
   -     2     0.021875 /_  -48.7 0.0091078     4.160        2-3 0.00064008 /_ -145.2 0.00015386
   -     3     0.021957 /_  -47.1  0.009142     4.160        3-1  0.0021527 /_  126.3 0.00051747
197 .... 1     0.024015 /_  -47.7 0.0099988     4.160        1-2  0.0022997 /_  -36.7 0.0005528
   -     2     0.021762 /_  -48.9 0.0090609     4.160        2-3 0.00062819 /_ -143.7 0.00015101
   -     3     0.021824 /_  -47.2 0.0090864     4.160        3-1  0.0021999 /_  127.5 0.00052882
101 .... 1     0.024121 /_  -47.6  0.010043     4.160        1-2  0.0023197 /_  -36.8 0.00055762
   -     2     0.021847 /_  -48.8 0.0090961     4.160        2-3 0.00063234 /_ -144.4 0.00015201
   -     3     0.021917 /_  -47.1 0.0091255     4.160        3-1  0.0022126 /_  127.4 0.00053187
102 .... 3     0.021982 /_  -47.1 0.0091524     4.160
105 .... 1     0.024216 /_  -47.6  0.010083     4.160        1-2  0.0023458 /_  -36.8 0.00056391
   -     2     0.021916 /_  -48.7 0.0091248     4.160        2-3  0.0006167 /_ -142.6 0.00014825
   -     3     0.021967 /_  -47.1 0.0091461     4.160        3-1  0.0022573 /_  127.9 0.00054262
103 .... 3     0.022057 /_  -47.0 0.0091834     4.160
104 .... 3     0.022137 /_  -46.9  0.009217     4.160
106 .... 2     0.021965 /_  -48.6 0.0091452     4.160
108 .... 1     0.024312 /_  -47.5  0.010123     4.160        1-2  0.0024125 /_  -36.5 0.00057992
   -     2     0.021948 /_  -48.7 0.0091384     4.160        2-3 0.00061885 /_ -142.9 0.00014876
   -     3     0.022003 /_  -47.1 0.0091611     4.160        3-1  0.0023149 /_  128.6 0.00055646
107 .... 2     0.022028 /_  -48.6 0.0091714     4.160
109 .... 1     0.024498 /_  -47.4    0.0102     4.160
300 .... 1     0.024312 /_  -47.5  0.010123     4.160        1-2  0.0024125 /_  -36.5 0.00057992
   -     2     0.021948 /_  -48.7 0.0091384     4.160        2-3 0.00061885 /_ -142.9 0.00014876
   -     3     0.022003 /_  -47.1 0.0091612     4.160        3-1  0.0023149 /_  128.6 0.00055646
110 .... 1     0.024588 /_  -47.4  0.010237     4.160
111 .... 1     0.024621 /_  -47.4  0.010251     4.160
112 .... 1     0.024618 /_  -47.4   0.01025     4.160
113 .... 1     0.024714 /_  -47.3   0.01029     4.160
114 .... 1     0.024733 /_  -47.3  0.010298     4.160
135 .... 1      0.01216 /_  -39.9 0.0050628     4.160        1-2  0.0012082 /_  -13.7 0.00029044
   -     2     0.011089 /_  -42.7 0.0046168     4.160        2-3 0.00056947 /_ -105.9 0.00013689
   -     3     0.010844 /_  -40.0 0.0045149     4.160        3-1  0.0013159 /_  140.7 0.00031633
152 .... 1     0.010366 /_  -42.3 0.0043161     4.160        1-2  0.0009015 /_  -19.6 0.00021671
   -     2     0.009541 /_  -44.4 0.0039725     4.160        2-3  0.0004592 /_  -90.0 0.00011038
   -     3     0.009226 /_  -42.3 0.0038413     4.160        3-1  0.0011403 /_  138.1 0.00027412
160R ... 1      0.02205 /_  -47.3 0.0091806     4.160        1-2  0.0020701 /_  -36.9 0.00049762
   -     2     0.020017 /_  -48.4 0.0083344     4.160        2-3 0.00057248 /_ -128.7 0.00013762
   -     3     0.019929 /_  -46.8 0.0082977     4.160        3-1  0.0021301 /_  127.5 0.00051203
160 .... 1     0.020748 /_  -47.3 0.0086385     4.160        1-2  0.0012794 /_  -30.8 0.00030754
   -     2     0.019525 /_  -48.4 0.0081294     4.160        2-3 0.00063501 /_ -107.3 0.00015265
   -     3     0.019205 /_  -46.8  0.007996     4.160        3-1  0.0015551 /_  125.8 0.00037381
61S .... 1     0.020748 /_  -47.3 0.0086387     4.160        1-2  0.0012794 /_  -30.8 0.00030754
   -     2     0.019526 /_  -48.4 0.0081296     4.160        2-3 0.00063501 /_ -107.3 0.00015265
   -     3     0.019205 /_  -46.8 0.0079962     4.160        3-1  0.0015551 /_  125.8 0.00037381
300_OPEN 1     0.013955 /_  -39.6 0.0058101     4.160        1-2  0.0011621 /_  -11.0 0.00027934
   -     2     0.012946 /_  -42.1 0.0053902     4.160        2-3  0.0007105 /_  -96.5 0.00017079
   -     3     0.012546 /_  -39.4 0.0052237     4.160        3-1  0.0014091 /_  138.8 0.00033872
94_OPEN  1     0.014694 /_  -44.9 0.0061182     4.160
610 .... 1   0.00010677 /_  -43.6 0.00038528     0.480        1-2 0.00014762 /_  -30.8 0.00030754
   -     2   4.9581E-005 /_  177.9 0.00017891     0.480        2-3 7.3271E-005 /_ -107.3 0.00015265
   -     3   7.6982E-005 /_  111.1 0.00027779     0.480        3-1 0.00017943 /_  125.8 0.00037381
